[General]
network = aqm_bootcamp.SimpleNetwork
sim-time-limit = 10s