[General]
network = aqm_bootcamp.SimpleNetwork
sim-time-limit = 100s
*.queue.maxQueueSize = 12
*.queue.minThreshold = 9
*.queue.maxThreshold = 11
*.generator.packetInterval = 0.80
