[General]
network = aqm_bootcamp.SimpleNetwork
sim-time-limit = 100s
*.queue.maxQueueSize = 10
*.queue.minThreshold = 5
*.queue.maxThreshold = 8
*.generator.packetInterval = 0.50
