[General]
network = aqm_bootcamp.SimpleNetwork
sim-time-limit = 10s
*.queue.maxQueueSize = 10
*.queue.minThreshold = 6
*.queue.maxThreshold = 9
